Info: SIMULATION PARAMETERS:
Info: TIMESTEP               1
Info: NUMBER OF STEPS        1000
Info: STEPS PER CYCLE        20
Info: PERIODIC CELL BASIS 1  32.9283 18.9731 0
Info: PERIODIC CELL BASIS 2  0 37.9461 0
Info: PERIODIC CELL BASIS 3  0 0 73.7604
Info: PERIODIC CELL CENTER   0 0 0
Info: WRAPPING ALL CLUSTERS AROUND PERIODIC BOUNDARIES ON OUTPUT.
Info: WRAPPING TO IMAGE NEAREST TO PERIODIC CELL CENTER.
Info: FIRST LDB TIMESTEP     100
Info: LAST LDB TIMESTEP     -1
Info: HOM BACKGROUND SCALING 1
Info: PME BACKGROUND SCALING 1
Info: MIN ATOMS PER PATCH    40
Info: EMPTY PATCH LOAD       40 ATOMS
Info: VELOCITY FILE          eq2.vel
Info: CENTER OF MASS MOVING INITIALLY? NO
Info: DIELECTRIC             1
Info: EXCLUDE                SCALED ONE-FOUR
Info: 1-4 ELECTROSTATICS SCALED BY 1
Info: MODIFIED 1-4 VDW PARAMETERS WILL BE USED
Info: DCD FILENAME           run0.dcd
Info: DCD FREQUENCY          100
Info: DCD FIRST STEP         100
Info: DCD FILE WILL CONTAIN UNIT CELL DATA
Info: XST FILENAME           run0.xst
Info: XST FREQUENCY          100
Info: NO VELOCITY DCD OUTPUT
Info: NO FORCE DCD OUTPUT
Info: OUTPUT FILENAME        run0
Info: BINARY OUTPUT FILES WILL BE USED
Info: RESTART FILENAME       run0.restart
Info: RESTART FREQUENCY      100
Info: BINARY RESTART FILES WILL BE USED
Info: SWITCHING ACTIVE
Info: SWITCHING ON           10
Info: SWITCHING OFF          12
Info: PAIRLIST DISTANCE      12
Info: PAIRLIST SHRINK RATE   0.01
Info: PAIRLIST GROW RATE     0.01
Info: PAIRLIST TRIGGER       0.3
Info: PAIRLISTS PER CYCLE    2
Info: PAIRLISTS ENABLED
Info: MARGIN                 3
Info: HYDROGEN GROUP CUTOFF  2.5
Info: PATCH DIMENSION        17.5
Info: ENERGY OUTPUT STEPS    100
Info: ENERGY EVALUATION STEPS    100
Info: OUTPUT ENERGY PRECISION 4
Info: CROSSTERM ENERGY INCLUDED IN DIHEDRAL
Info: TIMING OUTPUT STEPS    100
Info: HARMONIC CONSTRAINTS ACTIVE
Info: HARMONIC CONS EXP      2
Info: ELECTRIC FIELD ACTIVE
Info: E-FIELD VECTOR         (0, 0, 6.2528)
Info: E-FIELD FREQUENCY IS (1/ps) 0
Info: E-FIELD PHASE IS     (deg)  0
Info: LANGEVIN DYNAMICS ACTIVE
Info: LANGEVIN TEMPERATURE   295
Info: LANGEVIN USING BBK INTEGRATOR
Info: LANGEVIN DAMPING COEFFICIENTS DETERMINED FROM FILES
Info: LANGEVIN DAMPING FILE:  siliconRest_1.0.pdb
Info: LANGEVIN DAMPING COLUMN:  B
Info: PARTICLE MESH EWALD (PME) ACTIVE
Info: PME TOLERANCE               1e-06
Info: PME EWALD COEFFICIENT       0.257952
Info: PME INTERPOLATION ORDER     4
Info: PME GRID DIMENSIONS         48 48 64
Info: PME MAXIMUM GRID SPACING    1.5
Info: FULL ELECTROSTATIC EVALUATION FREQUENCY      4
Info: USING VERLET I (r-RESPA) MTS SCHEME.
Info: C1 SPLITTING OF LONG RANGE ELECTROSTATICS
Info: PLACING ATOMS IN PATCHES BY HYDROGEN GROUPS
Info: NONBONDED FORCES EVALUATED EVERY 2 STEPS
Info: RANDOM NUMBER SEED     1750856922
Info: USE HYDROGEN BONDS?    NO
Info: COORDINATE PDB         div_ion.pdb
Info: STRUCTURE FILE         div_ion.psf
Info: PARAMETER file: CHARMM format!
Info: PARAMETERS             cornell.prm
Info: PARAMETERS             par_silicon_ions_NEW5.inp
Info: USING ARITHMETIC MEAN TO COMBINE L-J SIGMA PARAMETERS
Info: BINARY COORDINATES     eq2.coor
Info: SUMMARY OF PARAMETERS:
Info: 96 BONDS
Info: 229 ANGLES
Info: 81 DIHEDRAL
Info: 31 IMPROPER
Info: 0 CROSSTERM
Info: 62 VDW
Info: 0 VDW_PAIRS
Info: 0 NBTHOLE_PAIRS
Info: STRUCTURE SUMMARY:
Info: 8924 ATOMS
Info: 10998 BONDS
Info: 22143 ANGLES
Info: 0 DIHEDRALS
Info: 0 IMPROPERS
Info: 0 CROSSTERMS
Info: 0 EXCLUSIONS
Info: 5258 CONSTRAINTS
Info: 26772 DEGREES OF FREEDOM
Info: 6616 HYDROGEN GROUPS
Info: 3 ATOMS IN LARGEST HYDROGEN GROUP
Info: 6616 MIGRATION GROUPS
Info: 3 ATOMS IN LARGEST MIGRATION GROUP
Info: TOTAL MASS = 133790 amu
Info: TOTAL CHARGE = 0.000170469 e
Info: MASS DENSITY = 2.41058 g/cm^3
Info: ATOM DENSITY = 0.0968276 atoms/A^3
Info: ADDED 76031 IMPLICIT EXCLUSIONS
Info: NONBONDED TABLE R-SQUARED SPACING: 0.0625
Info: NONBONDED TABLE SIZE: 769 POINTS
Info: REMOVING COM VELOCITY -0.07932 -0.0298664 0.0191695
ETITLE: TS BOND ANGLE DIHED IMPRP ELECT VDW BOUNDARY MISC KINETIC TOTAL TEMP POTENTIAL TOTAL3 TEMPAVG PRESSURE GPRESSURE VOLUME PRESSAVG GPRESSAVG
ENERGY: 0 3456.4419 521.0451 0.0000 0.0000 -716236.8918 12314.0101 2997.6004 102.4547 8094.1412 -688751.1985 304.2849 -696845.3397 -688684.7197 304.2849 29542.7385 28217.4856 92163.7903 29542.7385 28217.4856
ENERGY: 200 3607.8427 543.0354 0.0000 0.0000 -712492.2595 9591.6327 2941.5162 -2149.2946 8830.5617 -689126.9653 331.9693 -697957.5271 -689054.2337 331.4734 1849.1801 735.6391 92163.7903 5491.0775 5488.8393
ENERGY: 400 3626.6173 517.1372 0.0000 0.0000 -712095.7138 9427.7567 2955.9433 -2541.6535 8863.7965 -689246.1162 333.2187 -698109.9127 -689179.5242 329.8306 2423.2835 1168.7904 92163.7903 -1063.3991 -1066.0389
ENERGY: 600 3609.0763 542.1164 0.0000 0.0000 -713120.6180 10526.3950 2976.1760 -2843.5349 8888.8811 -689421.5081 334.1617 -698310.3892 -689356.0129 331.7458 13298.6222 12313.9140 92163.7903 11807.4501 11803.8926
ENERGY: 800 3725.7306 565.1821 0.0000 0.0000 -712374.1509 10005.5077 2967.6695 -3231.9720 8724.9859 -689617.0472 328.0003 -698342.0331 -689558.2392 332.9182 6078.6264 4461.8732 92163.7903 5499.6672 5492.5132
ENERGY: 1000 3748.6586 539.8282 0.0000 0.0000 -712413.6487 10063.3092 2905.6588 -3470.9751 8729.7314 -689897.4377 328.1787 -698627.1691 -689834.8873 331.8790 7397.7517 6272.9869 92163.7903 5420.4691 5424.3516
